OPT_V10/Two_days_MYC3_SOS/powerflow_results_t47.txt
Pandapower Network Debug Info
==================================================

BUS:
       vm_pu  va_degree      p_mw    q_mvar
0   0.993291   0.113624  0.000849  0.000870
1   0.989110   0.180639  0.001225  0.001970
2   0.985244   0.229969  0.002169  0.002618
3   0.989559   0.192704  0.002453  0.003945
4   0.999891   0.001188  0.009063  0.008889
5   0.999878   0.001327  0.010053  0.009540
6   0.999868   0.001478  0.010030  0.013177
7   0.999933   0.000794  0.000000  0.000000
8   0.999933   0.000800  0.000000  0.000000
9   1.000000   0.000000 -0.035976 -0.046097
10  1.000000   0.000006  0.000000  0.000000
--------------------------------------------------

LINE:
   p_from_mw  q_from_mvar   p_to_mw  q_to_mvar         pl_mw       ql_mvar  i_from_ka   i_to_ka      i_ka  vm_from_pu  va_from_degree  vm_to_pu  va_to_degree  loading_percent
0   0.035966     0.042097 -0.035963  -0.042095  2.998712e-06  2.338145e-06   0.002131  0.002131  0.002131    1.000000        0.000006  0.999933      0.000794         0.926592
1   0.029148     0.031607 -0.029146  -0.031606  1.429699e-06  1.114760e-06   0.001655  0.001655  0.001655    0.999933        0.000794  0.999891      0.001188         0.719571
2   0.006805     0.009488 -0.006742  -0.009438  6.377338e-05  4.972515e-05   0.016854  0.016854  0.016854    0.999933        0.000800  0.993291      0.113624         7.327874
3  -0.020083    -0.022717  0.020084   0.022718  3.180328e-07  2.479754e-07   0.001167  0.001167  0.001167    0.999878        0.001327  0.999891      0.001188         0.507493
4  -0.010030    -0.013177  0.010030   0.013177  1.341519e-07  1.046004e-07   0.000637  0.000637  0.000637    0.999868        0.001478  0.999878      0.001327         0.277163
5  -0.003404    -0.004597  0.003424   0.004612  1.978576e-05  1.542728e-05   0.008347  0.008347  0.008347    0.989110        0.180639  0.993291      0.113624         3.629148
6  -0.002453    -0.003945  0.002468   0.003956  1.471507e-05  1.147358e-05   0.006776  0.006776  0.006776    0.989559        0.192704  0.993291      0.113624         2.946097
7  -0.002169    -0.002618  0.002179   0.002627  1.077127e-05  8.398535e-06   0.004981  0.004981  0.004981    0.985244        0.229969  0.989110      0.180639         2.165500
--------------------------------------------------

TRAFO:
    p_hv_mw  q_hv_mvar   p_lv_mw  q_lv_mvar    pl_mw  ql_mvar   i_hv_ka   i_lv_ka  vm_hv_pu  va_hv_degree  vm_lv_pu  va_lv_degree  loading_percent
0  0.006815   0.010488 -0.006805  -0.009488  0.00001    0.001  0.000481  0.016854  0.999933      0.000794  0.999933      0.000800         0.125084
1  0.035976   0.046097 -0.035966  -0.042097  0.00001    0.004  0.000482  0.002131  1.000000      0.000000  1.000000      0.000006         0.146186
--------------------------------------------------
